OpenDSS_files/IEEE33bus_Power_seq_MVA.txt

SYMMETRICAL COMPONENT POWERS BY CIRCUIT ELEMENT (first 3 phases)                                     Excess Power

Element          Term    P1(MW)   Q1(Mvar)       P2         Q2      P0      Q0       P_Norm      Q_Norm     P_Emerg    Q_Emerg

"Vsource.SOURCE"  1        0.0        0.0        0.0        0.0     0.0     0.0
"Vsource.SOURCE"  2        0.0        0.0        0.0        0.0     0.0     0.0
"Line.LINE1"      1        0.0        0.0        0.0        0.0     0.0     0.0        0.0        0.0        0.0        0.0
"Line.LINE1"      2        0.0        0.0        0.0        0.0     0.0     0.0
"Line.LINE2"      1        0.0        0.0        0.0        0.0     0.0     0.0        0.0        0.0        0.0        0.0
"Line.LINE2"      2        0.0        0.0        0.0        0.0     0.0     0.0
"Line.LINE3"      1        0.0        0.0        0.0        0.0     0.0     0.0        0.0        0.0        0.0        0.0
"Line.LINE3"      2        0.0        0.0        0.0        0.0     0.0     0.0
"Line.LINE4"      1        0.0        0.0        0.0        0.0     0.0     0.0        0.0        0.0        0.0        0.0
"Line.LINE4"      2        0.0        0.0        0.0        0.0     0.0     0.0
"Line.LINE5"      1        0.0        0.0        0.0        0.0     0.0     0.0        0.0        0.0        0.0        0.0
"Line.LINE5"      2        0.0        0.0        0.0        0.0     0.0     0.0
"Line.LINE6"      1        0.0        0.0        0.0        0.0     0.0     0.0        0.0        0.0        0.0        0.0
"Line.LINE6"      2        0.0        0.0        0.0        0.0     0.0     0.0
"Line.LINE7"      1        0.0        0.0        0.0        0.0     0.0     0.0        0.0        0.0        0.0        0.0
"Line.LINE7"      2        0.0        0.0        0.0        0.0     0.0     0.0
"Line.LINE8"      1        0.0        0.0        0.0        0.0     0.0     0.0        0.0        0.0        0.0        0.0
"Line.LINE8"      2        0.0        0.0        0.0        0.0     0.0     0.0
"Line.LINE9"      1        0.0        0.0        0.0        0.0     0.0     0.0        0.0        0.0        0.0        0.0
"Line.LINE9"      2        0.0        0.0        0.0        0.0     0.0     0.0
"Line.LINE10"     1        0.0        0.0        0.0        0.0     0.0     0.0        0.0        0.0        0.0        0.0
"Line.LINE10"     2        0.0        0.0        0.0        0.0     0.0     0.0
"Line.LINE11"     1        0.0        0.0        0.0        0.0     0.0     0.0        0.0        0.0        0.0        0.0
"Line.LINE11"     2        0.0        0.0        0.0        0.0     0.0     0.0
"Line.LINE12"     1        0.0        0.0        0.0        0.0     0.0     0.0        0.0        0.0        0.0        0.0
"Line.LINE12"     2        0.0        0.0        0.0        0.0     0.0     0.0
"Line.LINE13"     1        0.0        0.0        0.0        0.0     0.0     0.0        0.0        0.0        0.0        0.0
"Line.LINE13"     2        0.0        0.0        0.0        0.0     0.0     0.0
"Line.LINE14"     1        0.0        0.0        0.0        0.0     0.0     0.0        0.0        0.0        0.0        0.0
"Line.LINE14"     2        0.0        0.0        0.0        0.0     0.0     0.0
"Line.LINE15"     1        0.0        0.0        0.0        0.0     0.0     0.0        0.0        0.0        0.0        0.0
"Line.LINE15"     2        0.0        0.0        0.0        0.0     0.0     0.0
"Line.LINE16"     1        0.0        0.0        0.0        0.0     0.0     0.0        0.0        0.0        0.0        0.0
"Line.LINE16"     2        0.0        0.0        0.0        0.0     0.0     0.0
"Line.LINE17"     1        0.0        0.0        0.0        0.0     0.0     0.0        0.0        0.0        0.0        0.0
"Line.LINE17"     2        0.0        0.0        0.0        0.0     0.0     0.0
"Line.LINE18"     1        0.0        0.0        0.0        0.0     0.0     0.0        0.0        0.0        0.0        0.0
"Line.LINE18"     2        0.0        0.0        0.0        0.0     0.0     0.0
"Line.LINE19"     1        0.0        0.0        0.0        0.0     0.0     0.0        0.0        0.0        0.0        0.0
"Line.LINE19"     2        0.0        0.0        0.0        0.0     0.0     0.0
"Line.LINE20"     1        0.0        0.0        0.0        0.0     0.0     0.0        0.0        0.0        0.0        0.0
"Line.LINE20"     2        0.0        0.0        0.0        0.0     0.0     0.0
"Line.LINE21"     1        0.0        0.0        0.0        0.0     0.0     0.0        0.0        0.0        0.0        0.0
"Line.LINE21"     2        0.0        0.0        0.0        0.0     0.0     0.0
"Line.LINE22"     1        0.0        0.0        0.0        0.0     0.0     0.0        0.0        0.0        0.0        0.0
"Line.LINE22"     2        0.0        0.0        0.0        0.0     0.0     0.0
"Line.LINE23"     1        0.0        0.0        0.0        0.0     0.0     0.0        0.0        0.0        0.0        0.0
"Line.LINE23"     2        0.0        0.0        0.0        0.0     0.0     0.0
"Line.LINE24"     1        0.0        0.0        0.0        0.0     0.0     0.0        0.0        0.0        0.0        0.0
"Line.LINE24"     2        0.0        0.0        0.0        0.0     0.0     0.0
"Line.LINE25"     1        0.0        0.0        0.0        0.0     0.0     0.0        0.0        0.0        0.0        0.0
"Line.LINE25"     2        0.0        0.0        0.0        0.0     0.0     0.0
"Line.LINE26"     1        0.0        0.0        0.0        0.0     0.0     0.0        0.0        0.0        0.0        0.0
"Line.LINE26"     2        0.0        0.0        0.0        0.0     0.0     0.0
"Line.LINE27"     1        0.0        0.0        0.0        0.0     0.0     0.0        0.0        0.0        0.0        0.0
"Line.LINE27"     2        0.0        0.0        0.0        0.0     0.0     0.0
"Line.LINE28"     1        0.0        0.0        0.0        0.0     0.0     0.0        0.0        0.0        0.0        0.0
"Line.LINE28"     2        0.0        0.0        0.0        0.0     0.0     0.0
"Line.LINE29"     1        0.0        0.0        0.0        0.0     0.0     0.0        0.0        0.0        0.0        0.0
"Line.LINE29"     2        0.0        0.0        0.0        0.0     0.0     0.0
"Line.LINE30"     1        0.0        0.0        0.0        0.0     0.0     0.0        0.0        0.0        0.0        0.0
"Line.LINE30"     2        0.0        0.0        0.0        0.0     0.0     0.0
"Line.LINE31"     1        0.0        0.0        0.0        0.0     0.0     0.0        0.0        0.0        0.0        0.0
"Line.LINE31"     2        0.0        0.0        0.0        0.0     0.0     0.0
"Line.LINE32"     1        0.0        0.0        0.0        0.0     0.0     0.0        0.0        0.0        0.0        0.0
"Line.LINE32"     2        0.0        0.0        0.0        0.0     0.0     0.0
"Load.LOAD1"      1        0.0        0.0        0.0        0.0     0.0     0.0
"Load.LOAD2"      1        0.0        0.0        0.0        0.0     0.0     0.0
"Load.LOAD3"      1        0.0        0.0        0.0        0.0     0.0     0.0
"Load.LOAD4"      1        0.0        0.0        0.0        0.0     0.0     0.0
"Load.LOAD5"      1        0.0        0.0        0.0        0.0     0.0     0.0
"Load.LOAD6"      1        0.0        0.0        0.0        0.0     0.0     0.0
"Load.LOAD7"      1        0.0        0.0        0.0        0.0     0.0     0.0
"Load.LOAD8"      1        0.0        0.0        0.0        0.0     0.0     0.0
"Load.LOAD9"      1        0.0        0.0        0.0        0.0     0.0     0.0
"Load.LOAD10"     1        0.0        0.0        0.0        0.0     0.0     0.0
"Load.LOAD11"     1        0.0        0.0        0.0        0.0     0.0     0.0
"Load.LOAD12"     1        0.0        0.0        0.0        0.0     0.0     0.0
"Load.LOAD13"     1        0.0        0.0        0.0        0.0     0.0     0.0
"Load.LOAD14"     1        0.0        0.0        0.0        0.0     0.0     0.0
"Load.LOAD15"     1        0.0        0.0        0.0        0.0     0.0     0.0
"Load.LOAD16"     1        0.0        0.0        0.0        0.0     0.0     0.0
"Load.LOAD17"     1        0.0        0.0        0.0        0.0     0.0     0.0
"Load.LOAD18"     1        0.0        0.0        0.0        0.0     0.0     0.0
"Load.LOAD19"     1        0.0        0.0        0.0        0.0     0.0     0.0
"Load.LOAD20"     1        0.0        0.0        0.0        0.0     0.0     0.0
"Load.LOAD21"     1        0.0        0.0        0.0        0.0     0.0     0.0
"Load.LOAD22"     1        0.0        0.0        0.0        0.0     0.0     0.0
"Load.LOAD23"     1        0.0        0.0        0.0        0.0     0.0     0.0
"Load.LOAD24"     1        0.0        0.0        0.0        0.0     0.0     0.0
"Load.LOAD25"     1        0.0        0.0        0.0        0.0     0.0     0.0
"Load.LOAD26"     1        0.0        0.0        0.0        0.0     0.0     0.0
"Load.LOAD27"     1        0.0        0.0        0.0        0.0     0.0     0.0
"Load.LOAD28"     1        0.0        0.0        0.0        0.0     0.0     0.0
"Load.LOAD29"     1        0.0        0.0        0.0        0.0     0.0     0.0
"Load.LOAD30"     1        0.0        0.0        0.0        0.0     0.0     0.0
"Load.LOAD31"     1        0.0        0.0        0.0        0.0     0.0     0.0
"Load.LOAD32"     1        0.0        0.0        0.0        0.0     0.0     0.0

Total Circuit Losses =    0.2 +j    0.1
